/*--------------------------------*- C++ -*----------------------------------*\
| =========                 |                                                 |
| \\      /  F ield         | OpenFOAM: The Open Source CFD Toolbox           |
|  \\    /   O peration     | Version:  v2406                                 |
|   \\  /    A nd           | Website:  www.openfoam.com                      |
|    \\/     M anipulation  |                                                 |
\*---------------------------------------------------------------------------*/
FoamFile
{
    version     2.0;
    format      ascii;
    class       dictionary;
    object      blockMeshDict;
}
// * * * * * * * * * * * * * * * * * * * * * * * * * * * * * * * * * * * * * //

scale   0.001;

vertices
(
	(-20	0	0)	// 0
	(10	0	0)	// 1
	(10	50	0)	// 2
	(-20	50	0)	// 3
	(-20	0	1)	// 4
	(10	0	1)	// 5
	(10	50	1)	// 6
	(-20	50	1)	// 7
	(10	5	0)	// 8
	(20	5	0)	// 9
	(20	50	0)	// 10
	(10	5	1)	// 11
	(20	5	1)	// 12
	(20	50	1)	// 13
	(20	0	0)	// 14
	(180	0	0)	// 15
	(180	5	0)	// 16
	(20	0	1)	// 17
	(180	0	1)	// 18
	(180	5	1)	// 19
	(180	50	0)	// 20
	(180	50	1)	// 21
	(-20	5	0)	// 22
	(-20	5	1)	// 23
);

blocks
(
    hex (0 1 8 22 4 5 11 23) (50 5 1) simpleGrading (0.25 1 1)
    hex (22 8 2 3 23 11 6 7) (50 45 1) simpleGrading (0.25 1 1)
    hex (8 9 10 2 11 12 13 6) (30 45 1) simpleGrading (1 1 1)
    hex (14 15 16 9 17 18 19 12) (480 5 1) simpleGrading (1 1 1)
    hex (9 16 20 10 12 19 21 13) (480 45 1) simpleGrading (1 1 1)
);

edges
(
);

boundary
(
    inlet
    {
        type patch;
        faces
        (
            (0 4 23 22)
            (22 23 7 3)
        );
    }
    
    outlet
    {
        type patch;
        faces
        (
            (15 18 19 16)
            (16 19 21 20)
        );
    }
    symmetry
    {
        type symmetryPlane;
        faces
        (
            (0 4 5 1)
            (14 17 18 15)
        );
    }
    top
    {
        type wall;
        faces
        (
            (3 7 6 2)
            (2 6 13 10)
            (10 13 21 20)
        );
    }
    obstacle
    {
        type wall;
        faces
        (
            (1 5 11 8)
            (8 11 12 9)
            (9 12 17 14)
        );
    }

);

mergePatchPairs
(
);


// ************************************************************************* //
